/*--------------------------------*- C++ -*----------------------------------*\
| =========                 |                                                 |
| \\      /  F ield         | OpenFOAM: The Open Source CFD Toolbox           |
|  \\    /   O peration     | Version:  1.5                                   |
|   \\  /    A nd           | Web:      http://www.OpenFOAM.org               |
|    \\/     M anipulation  |                                                 |
\*---------------------------------------------------------------------------*/
FoamFile
{
    version     2.0;
    format      ascii;
    class       dictionary;
    object      setFieldsDict;
}
// * * * * * * * * * * * * * * * * * * * * * * * * * * * * * * * * * * * * * //
defaultFieldValues
(
         volScalarFieldValue nut 0
         volScalarFieldValue nuTilda 0
);

   regions
   (
         boxToCell
        {  box (-0.48 -100 -100) (100 100 100);

           fieldValues
            (
                volScalarFieldValue nut 0.0000011389	//nut
                volScalarFieldValue nuTilda 0.0000011389	//nuTilda
            );
         }
    );
//*****************************************************************************//
