/*--------------------------------*- C++ -*----------------------------------*\
| =========                 |                                                 |
| \\      /  F ield         | OpenFOAM Extend Project: Open Source CFD        |
|  \\    /   O peration     | Version:  1.6-ext                               |
|   \\  /    A nd           | Web:      www.extend-project.de                 |
|    \\/     M anipulation  |                                                 |
\*---------------------------------------------------------------------------*/
FoamFile
{
    version     2.0;
    format      ascii;
    class       dictionary;
    object      controlDict;
}
// * * * * * * * * * * * * * * * * * * * * * * * * * * * * * * * * * * * * * //

libs ("libmySANoft2.so""libforces.so""liblinSingleBodyFvMesh.so");  //lin
// libs ("libmySANoft2.so""libforces.so""liblinMultiBodyFvMesh.so");  //lin

application     pimpleDyMFoam;

startFrom       latestTime;

startTime       0;

stopAt          endTime;

endTime        30;

deltaT          0.001;

writeControl    adjustableRunTime;
writeInterval   0.05;

//writeControl    timeStep;
//writeInterval   5;


cycleWrite      0;

writeFormat     ascii;

writeCompression uncompressed;

timeFormat      general;
writePrecision  10;
timePrecision   10;

runTimeModifiable yes;

adjustTimeStep   yes;

maxCo            0.25;


functions
{
    forceCoeffsCyl1	//cyl1_begin
    {
    type forceCoeffs;
    functionObjectLibs ("libforces.so");
    patches (cylinder1); //change to your patch name
        pName       p;
        UName       U;
        log         true;
    rhoInf 999.1026;
    rhoName rhoInf;
    CofR (0 0 0);
    liftDir (0 1 0);
    dragDir (1 0 0);
    pitchAxis (0 0 0);
    magUInf 1.3007736;	//U
    lRef 1;		//diameter of cylinder
    Aref 0.08129016;	//lRef*mesh_size_z-direction
    outputControl timeStep;
    outputInterval 10;

    }	//cyl1_end

    forceCoeffsCyl2	//cyl2_begin
    {
    type forceCoeffs;
    functionObjectLibs ("libforces.so");
    patches (cylinder2); //change to your patch name
        pName       p;
        UName       U;
        log         true;
    rhoInf 999.1026;
    rhoName rhoInf;
    CofR (0 0 0);
    liftDir (0 1 0);
    dragDir (1 0 0);
    pitchAxis (0 0 0);
    magUInf 1.3007736;	//U
    lRef 1;		//diameter of cylinder
    Aref 0.08129016;	//lRef*mesh_size_z-direction
    outputControl timeStep;
    outputInterval 10;

    }	//cyl2_end

    forceCoeffsCyl3	//cyl3_begin
    {
    type forceCoeffs;
    functionObjectLibs ("libforces.so");
    patches (cylinder3); //change to your patch name
        pName       p;
        UName       U;
        log         true;
    rhoInf 999.1026;
    rhoName rhoInf;
    CofR (0 0 0);
    liftDir (0 1 0);
    dragDir (1 0 0);
    pitchAxis (0 0 0);
    magUInf 1.3007736;	//U
    lRef 1;		//diameter of cylinder
    Aref 0.08129016;	//lRef*mesh_size_z-direction
    outputControl timeStep;
    outputInterval 10;

    }	//cyl3_end

    forceCoeffsCyl4	//cyl4_begin
    {
    type forceCoeffs;
    functionObjectLibs ("libforces.so");
    patches (cylinder4); //change to your patch name
        pName       p;
        UName       U;
        log         true;
    rhoInf 999.1026;
    rhoName rhoInf;
    CofR (0 0 0);
    liftDir (0 1 0);
    dragDir (1 0 0);
    pitchAxis (0 0 0);
    magUInf 1.3007736;	//U
    lRef 1;		//diameter of cylinder
    Aref 0.08129016;	//lRef*mesh_size_z-direction
    outputControl timeStep;
    outputInterval 10;

    }	//cyl4_end

};

// ************************************************************************* //
