/*--------------------------------*- C++ -*----------------------------------*\
| =========                 |                                                 |
| \\      /  F ield         | OpenFOAM: The Open Source CFD Toolbox           |
|  \\    /   O peration     | Version:  1.5                                   |
|   \\  /    A nd           | Web:      http://www.OpenFOAM.org               |
|    \\/     M anipulation  |                                                 |
\*---------------------------------------------------------------------------*/
FoamFile
{
    version     2.0;
    format      ascii;
    class       dictionary;
    object      fvSolution;
}
// * * * * * * * * * * * * * * * * * * * * * * * * * * * * * * * * * * * * * //

solvers
{

pcorr
{
    solver          PCG;
    preconditioner  DIC;
    tolerance       1e-06;
    relTol          0;
}
p
{
    solver          PCG;
    preconditioner  DIC;
    tolerance       1e-06;
    relTol          0;
}

pFinal
{
    solver          PCG;
    preconditioner  DIC;
    tolerance       1e-08;
}

U
{
    solver          PBiCG;
    preconditioner  DILU;
    tolerance       1e-05;
    relTol          0;
}

k
{
    solver          PBiCG;
    preconditioner  DILU;
    tolerance       1e-05;
    relTol          0;
}

epsilon
{
    solver          PBiCG;
    preconditioner  DILU;
    tolerance       1e-05;
    relTol          0;
}

R
{
    solver          PBiCG;
    preconditioner  DILU;
    tolerance       1e-05;
    relTol          0;
}

nuTilda
{
    solver          PBiCG;
    preconditioner  DILU;
    tolerance       1e-05;
    relTol          0;
}
}

PIMPLE
{
    nOuterCorrectors    2;
    nCorrectors         4;
    nNonOrthogonalCorrectors 0;
    correctPhi          yes;
    checkMeshCourantNo  yes;

    pRefCell  0;
    pRefValue 0;
}

PISO
{
    nCorrectors     2;
    nNonOrthogonalCorrectors 0;
    pRefCell        0;
    pRefValue       0;
}

// ************************************************************************* //
