/*--------------------------------*- C++ -*----------------------------------*\ 
|             BlockMeshDict generated by hexBlocker                           | 
\*---------------------------------------------------------------------------*/ 
FoamFile 
{
	 version 	 2.0;
	 format 	 ascii;
	 class 		 dictionary; 
	 object 	 blockMeshDict; 
}
convertToMeters 1;

vertices
(
	(0 -4.5 0) //0
	(0.5 -4.5 0) //1
	(0.5 -2.75 0) //2
	(0 -2.75 0) //3
	(0 -4.5 1) //4
	(0.5 -4.5 1) //5
	(0.5 -2.75 1) //6
	(0 -2.75 1) //7
	(0 -1 0) //8
	(0.5 -1 0) //9
	(0.5 1 0) //10
	(0 1 0) //11
	(0 -1 1) //12
	(0.5 -1 1) //13
	(0.5 1 1) //14
	(0 1 1) //15
	(0 2.75 0) //16
	(0.5 2.75 0) //17
	(0.5 4.5 0) //18
	(0 4.5 0) //19
	(0 2.75 1) //20
	(0.5 2.75 1) //21
	(0.5 4.5 1) //22
	(0 4.5 1) //23

);

blocks
(
	hex (0 1 2 3 4 5 6 7) (16 33 1) simpleGrading (1 1.89 1)
	hex (3 2 9 8 7 6 13 12) (16 33 1) simpleGrading (1 0.53 1)
	hex (8 9 10 11 12 13 14 15) (16 58 1) simpleGrading (1 1 1)
	hex (11 10 17 16 15 14 21 20) (16 33 1) simpleGrading (1 1.89 1)
	hex (16 17 18 19 20 21 22 23) (16 33 1) simpleGrading (1 0.53 1)
);

boundary
(
	top
	{
		type	patch;
		faces	
		(
			(19 23 22 18)
		);
	}
	bottom
	{
		type	patch;
		faces	
		(
			(0 1 5 4)
		);
	}
	frontAndBack
	{
		type	patch;
		faces	
		(
			(20 21 22 23)
			(15 14 21 20)
			(12 13 14 15)
			(7 6 13 12)
			(4 5 6 7)
			(0 3 2 1)
			(3 8 9 2)
			(8 11 10 9)
			(11 16 17 10)
			(16 19 18 17)
		);
	}
	ggi2out
	{
		type	patch;
		faces	
		(
			(16 20 23 19)
			(11 15 20 16)
			(8 12 15 11)
			(3 7 12 8)
			(0 4 7 3)
		);
	}
	ggi3in
	{
		type	patch;
		faces	
		(
			(17 18 22 21)
			(10 17 21 14)
			(9 10 14 13)
			(2 9 13 6)
			(1 2 6 5)
		);
	}
);

edges
(
);
